<edges>
<edge id="E0" from="N7" to="N8" numLanes="2" speed="11.381955132009661"/>
<edge id="-E0" from="N8" to="N7" numLanes="2" speed="9.278071018234785"/>
<edge id="E1" from="N7" to="N14" numLanes="2" speed="12.452153721686397"/>
<edge id="-E1" from="N14" to="N7" numLanes="2" speed="11.811691008522278"/>
<edge id="E2" from="N7" to="N6" numLanes="2" speed="12.086833022420345"/>
<edge id="-E2" from="N6" to="N7" numLanes="2" speed="12.818989847579111"/>
<edge id="E3" from="N7" to="N1" numLanes="2" speed="11.55303967937117"/>
<edge id="-E3" from="N1" to="N7" numLanes="2" speed="12.885508831463818"/>
<edge id="E4" from="N8" to="N9" numLanes="2" speed="11.007304121673023"/>
<edge id="-E4" from="N9" to="N8" numLanes="2" speed="11.61246336828781"/>
<edge id="E5" from="N8" to="N15" numLanes="2" speed="12.681777616824785"/>
<edge id="-E5" from="N15" to="N8" numLanes="2" speed="10.270923877164172"/>
<edge id="E7" from="N8" to="N2" numLanes="2" speed="9.1301596679965"/>
<edge id="-E7" from="N2" to="N8" numLanes="2" speed="12.806629858523785"/>
<edge id="E8" from="N9" to="N10" numLanes="2" speed="9.700438573771327"/>
<edge id="-E8" from="N10" to="N9" numLanes="2" speed="10.625338165228893"/>
<edge id="E9" from="N9" to="N16" numLanes="2" speed="11.085753391885422"/>
<edge id="-E9" from="N16" to="N9" numLanes="2" speed="11.90138388806822"/>
<edge id="E11" from="N9" to="N3" numLanes="2" speed="10.16530653292471"/>
<edge id="-E11" from="N3" to="N9" numLanes="2" speed="11.186857978246765"/>
<edge id="E12" from="N10" to="N11" numLanes="2" speed="10.154243457467855"/>
<edge id="-E12" from="N11" to="N10" numLanes="2" speed="9.980629082765626"/>
<edge id="E13" from="N10" to="N17" numLanes="2" speed="11.026896185621258"/>
<edge id="-E13" from="N17" to="N10" numLanes="2" speed="9.450791363717787"/>
<edge id="E15" from="N10" to="N4" numLanes="2" speed="10.407421520659042"/>
<edge id="-E15" from="N4" to="N10" numLanes="2" speed="9.884928383037312"/>
<edge id="E16" from="N11" to="N12" numLanes="2" speed="11.385601805968708"/>
<edge id="-E16" from="N12" to="N11" numLanes="2" speed="12.06698614053402"/>
<edge id="E17" from="N11" to="N18" numLanes="2" speed="12.85129680583213"/>
<edge id="-E17" from="N18" to="N11" numLanes="2" speed="12.325723336298779"/>
<edge id="E19" from="N11" to="N5" numLanes="2" speed="12.5567824840122"/>
<edge id="-E19" from="N5" to="N11" numLanes="2" speed="12.702238687209812"/>
<edge id="E20" from="N14" to="N15" numLanes="2" speed="12.587573055283823"/>
<edge id="-E20" from="N15" to="N14" numLanes="2" speed="12.079187168083848"/>
<edge id="E21" from="N14" to="N21" numLanes="2" speed="9.345662560158816"/>
<edge id="-E21" from="N21" to="N14" numLanes="2" speed="13.108457524811033"/>
<edge id="E22" from="N14" to="N13" numLanes="2" speed="9.136236890959225"/>
<edge id="-E22" from="N13" to="N14" numLanes="2" speed="10.775433155163837"/>
<edge id="E24" from="N15" to="N16" numLanes="2" speed="12.277446102913819"/>
<edge id="-E24" from="N16" to="N15" numLanes="2" speed="13.084565120623752"/>
<edge id="E25" from="N15" to="N22" numLanes="2" speed="13.183982436416084"/>
<edge id="-E25" from="N22" to="N15" numLanes="2" speed="9.12342376138982"/>
<edge id="E28" from="N16" to="N17" numLanes="2" speed="12.500040227607478"/>
<edge id="-E28" from="N17" to="N16" numLanes="2" speed="9.865662976216097"/>
<edge id="E29" from="N16" to="N23" numLanes="2" speed="11.92793530156282"/>
<edge id="-E29" from="N23" to="N16" numLanes="2" speed="13.244954798737627"/>
<edge id="E32" from="N17" to="N18" numLanes="2" speed="10.73265802634905"/>
<edge id="-E32" from="N18" to="N17" numLanes="2" speed="10.361525105676886"/>
<edge id="E33" from="N17" to="N24" numLanes="2" speed="12.606554395482238"/>
<edge id="-E33" from="N24" to="N17" numLanes="2" speed="10.705661038215613"/>
<edge id="E36" from="N18" to="N19" numLanes="2" speed="9.36352890306801"/>
<edge id="-E36" from="N19" to="N18" numLanes="2" speed="10.23542739074928"/>
<edge id="E37" from="N18" to="N25" numLanes="2" speed="12.381188958758123"/>
<edge id="-E37" from="N25" to="N18" numLanes="2" speed="11.577514860214196"/>
<edge id="E40" from="N21" to="N22" numLanes="2" speed="12.731787599253789"/>
<edge id="-E40" from="N22" to="N21" numLanes="2" speed="9.335302283658077"/>
<edge id="E41" from="N21" to="N28" numLanes="2" speed="10.700423758727881"/>
<edge id="-E41" from="N28" to="N21" numLanes="2" speed="11.03140678730446"/>
<edge id="E42" from="N21" to="N20" numLanes="2" speed="10.850451284296108"/>
<edge id="-E42" from="N20" to="N21" numLanes="2" speed="11.597324369270428"/>
<edge id="E44" from="N22" to="N23" numLanes="2" speed="11.270959713528956"/>
<edge id="-E44" from="N23" to="N22" numLanes="2" speed="13.286782595489937"/>
<edge id="E45" from="N22" to="N29" numLanes="2" speed="9.962066255540924"/>
<edge id="-E45" from="N29" to="N22" numLanes="2" speed="11.052017590489445"/>
<edge id="E48" from="N23" to="N24" numLanes="2" speed="10.425517715777262"/>
<edge id="-E48" from="N24" to="N23" numLanes="2" speed="12.447383695889162"/>
<edge id="E49" from="N23" to="N30" numLanes="2" speed="10.353395124532797"/>
<edge id="-E49" from="N30" to="N23" numLanes="2" speed="12.31799469734276"/>
<edge id="E52" from="N24" to="N25" numLanes="2" speed="10.578478142076154"/>
<edge id="-E52" from="N25" to="N24" numLanes="2" speed="10.757068750529363"/>
<edge id="E53" from="N24" to="N31" numLanes="2" speed="10.927931658044166"/>
<edge id="-E53" from="N31" to="N24" numLanes="2" speed="9.048059514418105"/>
<edge id="E56" from="N25" to="N26" numLanes="2" speed="12.190778293658315"/>
<edge id="-E56" from="N26" to="N25" numLanes="2" speed="12.337983865080488"/>
<edge id="E57" from="N25" to="N32" numLanes="2" speed="11.953759294381552"/>
<edge id="-E57" from="N32" to="N25" numLanes="2" speed="10.685343292409891"/>
<edge id="E60" from="N28" to="N29" numLanes="2" speed="9.376507107130088"/>
<edge id="-E60" from="N29" to="N28" numLanes="2" speed="9.202430004402002"/>
<edge id="E61" from="N28" to="N35" numLanes="2" speed="9.113525340900152"/>
<edge id="-E61" from="N35" to="N28" numLanes="2" speed="10.43652474545527"/>
<edge id="E62" from="N28" to="N27" numLanes="2" speed="9.748104850979859"/>
<edge id="-E62" from="N27" to="N28" numLanes="2" speed="10.971373314622605"/>
<edge id="E64" from="N29" to="N30" numLanes="2" speed="12.261079587942085"/>
<edge id="-E64" from="N30" to="N29" numLanes="2" speed="10.415152839929101"/>
<edge id="E65" from="N29" to="N36" numLanes="2" speed="9.442405141847095"/>
<edge id="-E65" from="N36" to="N29" numLanes="2" speed="13.009881603653625"/>
<edge id="E68" from="N30" to="N31" numLanes="2" speed="9.897554881103686"/>
<edge id="-E68" from="N31" to="N30" numLanes="2" speed="11.268796936941868"/>
<edge id="E69" from="N30" to="N37" numLanes="2" speed="12.434609673613888"/>
<edge id="-E69" from="N37" to="N30" numLanes="2" speed="12.778609061207998"/>
<edge id="E72" from="N31" to="N32" numLanes="2" speed="12.306150986990266"/>
<edge id="-E72" from="N32" to="N31" numLanes="2" speed="11.94074919031124"/>
<edge id="E73" from="N31" to="N38" numLanes="2" speed="10.324480601940017"/>
<edge id="-E73" from="N38" to="N31" numLanes="2" speed="9.083673334111698"/>
<edge id="E76" from="N32" to="N33" numLanes="2" speed="9.513981421368866"/>
<edge id="-E76" from="N33" to="N32" numLanes="2" speed="13.010688846753368"/>
<edge id="E77" from="N32" to="N39" numLanes="2" speed="9.567568560977648"/>
<edge id="-E77" from="N39" to="N32" numLanes="2" speed="9.759954112262523"/>
<edge id="E80" from="N35" to="N36" numLanes="2" speed="10.895371786079092"/>
<edge id="-E80" from="N36" to="N35" numLanes="2" speed="10.847906613586506"/>
<edge id="E81" from="N35" to="N41" numLanes="2" speed="10.587522285234108"/>
<edge id="-E81" from="N41" to="N35" numLanes="2" speed="11.65360887420853"/>
<edge id="E82" from="N35" to="N34" numLanes="2" speed="9.598849969161462"/>
<edge id="-E82" from="N34" to="N35" numLanes="2" speed="12.048855681664607"/>
<edge id="E84" from="N36" to="N37" numLanes="2" speed="12.621957546550814"/>
<edge id="-E84" from="N37" to="N36" numLanes="2" speed="9.576353144786173"/>
<edge id="E85" from="N36" to="N42" numLanes="2" speed="11.647711799786741"/>
<edge id="-E85" from="N42" to="N36" numLanes="2" speed="10.5748579861588"/>
<edge id="E88" from="N37" to="N38" numLanes="2" speed="9.082517553614398"/>
<edge id="-E88" from="N38" to="N37" numLanes="2" speed="10.406321397604417"/>
<edge id="E89" from="N37" to="N43" numLanes="2" speed="10.88841707515821"/>
<edge id="-E89" from="N43" to="N37" numLanes="2" speed="11.740300840029235"/>
<edge id="E92" from="N38" to="N39" numLanes="2" speed="11.438582366494279"/>
<edge id="-E92" from="N39" to="N38" numLanes="2" speed="10.433272390245524"/>
<edge id="E93" from="N38" to="N44" numLanes="2" speed="12.629666310636079"/>
<edge id="-E93" from="N44" to="N38" numLanes="2" speed="12.776057196632774"/>
<edge id="E96" from="N39" to="N40" numLanes="2" speed="11.03122044196866"/>
<edge id="-E96" from="N40" to="N39" numLanes="2" speed="11.839472576115542"/>
<edge id="E97" from="N39" to="N45" numLanes="2" speed="9.746139482834048"/>
<edge id="-E97" from="N45" to="N39" numLanes="2" speed="10.87306195397347"/>
</edges>