<?xml version="1.0" encoding="UTF-8"?>

<!-- generated on 2026-04-16T13:32:50.633102+09:00 by Eclipse SUMO netgenerate 1.26.0
<netgenerateConfiguration xmlns:xsi="http://www.w3.org/2001/XMLSchema-instance" xsi:noNamespaceSchemaLocation="http://sumo.dlr.de/xsd/netgenerateConfiguration.xsd">

    <grid_network>
        <grid value="true"/>
        <grid.number value="5"/>
        <grid.length value="250.0"/>
    </grid_network>

    <output>
        <output-file value="/home/nyj/0_paper/home/nyj/0_paper/simulation/config/grid5x5.net.xml"/>
    </output>

    <building_defaults>
        <default.lanenumber value="2"/>
        <default.speed value="13.89"/>
    </building_defaults>

    <tls_building>
        <tls.set value="J_1_1,J_1_2,J_2_1,J_2_2"/>
    </tls_building>

    <junctions>
        <no-turnarounds value="true"/>
    </junctions>

    <random_number>
        <seed value="42"/>
    </random_number>

</netgenerateConfiguration>
-->

<net version="1.20" junctionCornerDetail="5" limitTurnSpeed="5.50" xmlns:xsi="http://www.w3.org/2001/XMLSchema-instance" xsi:noNamespaceSchemaLocation="http://sumo.dlr.de/xsd/net_file.xsd">

    <location netOffset="0.00,0.00" convBoundary="0.00,0.00,1000.00,1000.00" origBoundary="0.00,0.00,1000.00,1000.00" projParameter="!"/>

    <edge id=":A0_0" function="internal">
        <lane id=":A0_0_0" index="0" speed="8.96" length="18.06" shape="-4.80,6.40 -4.10,1.50 -2.00,-2.00 1.50,-4.10 6.40,-4.80"/>
        <lane id=":A0_0_1" index="1" speed="7.66" length="12.90" shape="-1.60,6.40 -1.10,2.90 0.40,0.40 2.90,-1.10 6.40,-1.60"/>
    </edge>
    <edge id=":A0_2" function="internal">
        <lane id=":A0_2_0" index="0" speed="3.90" length="2.58" shape="6.40,4.80 5.70,4.90 5.20,5.20 4.90,5.70 4.80,6.40"/>
        <lane id=":A0_2_1" index="1" speed="6.08" length="7.74" shape="6.40,1.60 4.30,1.90 2.80,2.80 1.90,4.30 1.60,6.40"/>
    </edge>
    <edge id=":A1_0" function="internal">
        <lane id=":A1_0_0" index="0" speed="13.89" length="20.80" shape="-4.80,260.40 -4.80,239.60"/>
        <lane id=":A1_0_1" index="1" speed="13.89" length="20.80" shape="-1.60,260.40 -1.60,239.60"/>
    </edge>
    <edge id=":A1_2" function="internal">
        <lane id=":A1_2_0" index="0" speed="9.26" length="5.01" shape="-1.60,260.40 -0.89,255.44"/>
    </edge>
    <edge id=":A1_8" function="internal">
        <lane id=":A1_8_0" index="0" speed="9.26" length="14.34" shape="-0.89,255.44 -0.85,255.15 1.40,251.40 5.15,249.15 10.40,248.40"/>
    </edge>
    <edge id=":A1_3" function="internal">
        <lane id=":A1_3_0" index="0" speed="6.51" length="9.03" shape="10.40,254.80 7.95,255.15 6.20,256.20 5.15,257.95 4.80,260.40"/>
    </edge>
    <edge id=":A1_4" function="internal">
        <lane id=":A1_4_0" index="0" speed="9.26" length="19.35" shape="10.40,251.60 5.15,250.85 1.40,248.60 -0.85,244.85 -1.60,239.60"/>
    </edge>
    <edge id=":A1_5" function="internal">
        <lane id=":A1_5_0" index="0" speed="6.51" length="9.03" shape="4.80,239.60 5.15,242.05 6.20,243.80 7.95,244.85 10.40,245.20"/>
    </edge>
    <edge id=":A1_6" function="internal">
        <lane id=":A1_6_0" index="0" speed="13.89" length="20.80" shape="4.80,239.60 4.80,260.40"/>
        <lane id=":A1_6_1" index="1" speed="13.89" length="20.80" shape="1.60,239.60 1.60,260.40"/>
    </edge>
    <edge id=":A2_0" function="internal">
        <lane id=":A2_0_0" index="0" speed="13.89" length="20.80" shape="-4.80,510.40 -4.80,489.60"/>
        <lane id=":A2_0_1" index="1" speed="13.89" length="20.80" shape="-1.60,510.40 -1.60,489.60"/>
    </edge>
    <edge id=":A2_2" function="internal">
        <lane id=":A2_2_0" index="0" speed="9.26" length="5.01" shape="-1.60,510.40 -0.89,505.44"/>
    </edge>
    <edge id=":A2_8" function="internal">
        <lane id=":A2_8_0" index="0" speed="9.26" length="14.34" shape="-0.89,505.44 -0.85,505.15 1.40,501.40 5.15,499.15 10.40,498.40"/>
    </edge>
    <edge id=":A2_3" function="internal">
        <lane id=":A2_3_0" index="0" speed="6.51" length="9.03" shape="10.40,504.80 7.95,505.15 6.20,506.20 5.15,507.95 4.80,510.40"/>
    </edge>
    <edge id=":A2_4" function="internal">
        <lane id=":A2_4_0" index="0" speed="9.26" length="19.35" shape="10.40,501.60 5.15,500.85 1.40,498.60 -0.85,494.85 -1.60,489.60"/>
    </edge>
    <edge id=":A2_5" function="internal">
        <lane id=":A2_5_0" index="0" speed="6.51" length="9.03" shape="4.80,489.60 5.15,492.05 6.20,493.80 7.95,494.85 10.40,495.20"/>
    </edge>
    <edge id=":A2_6" function="internal">
        <lane id=":A2_6_0" index="0" speed="13.89" length="20.80" shape="4.80,489.60 4.80,510.40"/>
        <lane id=":A2_6_1" index="1" speed="13.89" length="20.80" shape="1.60,489.60 1.60,510.40"/>
    </edge>
    <edge id=":A3_0" function="internal">
        <lane id=":A3_0_0" index="0" speed="13.89" length="20.80" shape="-4.80,760.40 -4.80,739.60"/>
        <lane id=":A3_0_1" index="1" speed="13.89" length="20.80" shape="-1.60,760.40 -1.60,739.60"/>
    </edge>
    <edge id=":A3_2" function="internal">
        <lane id=":A3_2_0" index="0" speed="9.26" length="5.01" shape="-1.60,760.40 -0.89,755.44"/>
    </edge>
    <edge id=":A3_8" function="internal">
        <lane id=":A3_8_0" index="0" speed="9.26" length="14.34" shape="-0.89,755.44 -0.85,755.15 1.40,751.40 5.15,749.15 10.40,748.40"/>
    </edge>
    <edge id=":A3_3" function="internal">
        <lane id=":A3_3_0" index="0" speed="6.51" length="9.03" shape="10.40,754.80 7.95,755.15 6.20,756.20 5.15,757.95 4.80,760.40"/>
    </edge>
    <edge id=":A3_4" function="internal">
        <lane id=":A3_4_0" index="0" speed="9.26" length="19.35" shape="10.40,751.60 5.15,750.85 1.40,748.60 -0.85,744.85 -1.60,739.60"/>
    </edge>
    <edge id=":A3_5" function="internal">
        <lane id=":A3_5_0" index="0" speed="6.51" length="9.03" shape="4.80,739.60 5.15,742.05 6.20,743.80 7.95,744.85 10.40,745.20"/>
    </edge>
    <edge id=":A3_6" function="internal">
        <lane id=":A3_6_0" index="0" speed="13.89" length="20.80" shape="4.80,739.60 4.80,760.40"/>
        <lane id=":A3_6_1" index="1" speed="13.89" length="20.80" shape="1.60,739.60 1.60,760.40"/>
    </edge>
    <edge id=":A4_0" function="internal">
        <lane id=":A4_0_0" index="0" speed="8.96" length="18.06" shape="6.40,1004.80 1.50,1004.10 -2.00,1002.00 -4.10,998.50 -4.80,993.60"/>
        <lane id=":A4_0_1" index="1" speed="7.66" length="12.90" shape="6.40,1001.60 2.90,1001.10 0.40,999.60 -1.10,997.10 -1.60,993.60"/>
    </edge>
    <edge id=":A4_2" function="internal">
        <lane id=":A4_2_0" index="0" speed="3.90" length="2.58" shape="4.80,993.60 4.90,994.30 5.20,994.80 5.70,995.10 6.40,995.20"/>
        <lane id=":A4_2_1" index="1" speed="6.08" length="7.74" shape="1.60,993.60 1.90,995.70 2.80,997.20 4.30,998.10 6.40,998.40"/>
    </edge>
    <edge id=":B0_0" function="internal">
        <lane id=":B0_0_0" index="0" speed="6.51" length="9.03" shape="245.20,10.40 244.85,7.95 243.80,6.20 242.05,5.15 239.60,4.80"/>
    </edge>
    <edge id=":B0_1" function="internal">
        <lane id=":B0_1_0" index="0" speed="9.26" length="19.35" shape="248.40,10.40 249.15,5.15 251.40,1.40 255.15,-0.85 260.40,-1.60"/>
    </edge>
    <edge id=":B0_2" function="internal">
        <lane id=":B0_2_0" index="0" speed="6.51" length="9.03" shape="260.40,4.80 257.95,5.15 256.20,6.20 255.15,7.95 254.80,10.40"/>
    </edge>
    <edge id=":B0_3" function="internal">
        <lane id=":B0_3_0" index="0" speed="13.89" length="20.80" shape="260.40,4.80 239.60,4.80"/>
        <lane id=":B0_3_1" index="1" speed="13.89" length="20.80" shape="260.40,1.60 239.60,1.60"/>
    </edge>
    <edge id=":B0_5" function="internal">
        <lane id=":B0_5_0" index="0" speed="13.89" length="20.80" shape="239.60,-4.80 260.40,-4.80"/>
        <lane id=":B0_5_1" index="1" speed="13.89" length="20.80" shape="239.60,-1.60 260.40,-1.60"/>
    </edge>
    <edge id=":B0_7" function="internal">
        <lane id=":B0_7_0" index="0" speed="9.26" length="5.01" shape="239.60,-1.60 244.56,-0.89"/>
    </edge>
    <edge id=":B0_8" function="internal">
        <lane id=":B0_8_0" index="0" speed="9.26" length="14.34" shape="244.56,-0.89 244.85,-0.85 248.60,1.40 250.85,5.15 251.60,10.40"/>
    </edge>
    <edge id=":B1_0" function="internal">
        <lane id=":B1_0_0" index="0" speed="6.51" length="9.03" shape="245.20,260.40 244.85,257.95 243.80,256.20 242.05,255.15 239.60,254.80"/>
    </edge>
    <edge id=":B1_1" function="internal">
        <lane id=":B1_1_0" index="0" speed="13.89" length="20.80" shape="245.20,260.40 245.20,239.60"/>
        <lane id=":B1_1_1" index="1" speed="13.89" length="20.80" shape="248.40,260.40 248.40,239.60"/>
    </edge>
    <edge id=":B1_3" function="internal">
        <lane id=":B1_3_0" index="0" speed="9.26" length="5.01" shape="248.40,260.40 249.11,255.44"/>
    </edge>
    <edge id=":B1_16" function="internal">
        <lane id=":B1_16_0" index="0" speed="9.26" length="14.34" shape="249.11,255.44 249.15,255.15 251.40,251.40 255.15,249.15 260.40,248.40"/>
    </edge>
    <edge id=":B1_4" function="internal">
        <lane id=":B1_4_0" index="0" speed="6.51" length="9.03" shape="260.40,254.80 257.95,255.15 256.20,256.20 255.15,257.95 254.80,260.40"/>
    </edge>
    <edge id=":B1_5" function="internal">
        <lane id=":B1_5_0" index="0" speed="13.89" length="20.80" shape="260.40,254.80 239.60,254.80"/>
        <lane id=":B1_5_1" index="1" speed="13.89" length="20.80" shape="260.40,251.60 239.60,251.60"/>
    </edge>
    <edge id=":B1_7" function="internal">
        <lane id=":B1_7_0" index="0" speed="9.26" length="19.35" shape="260.40,251.60 255.15,250.85 251.40,248.60 249.15,244.85 248.40,239.60"/>
    </edge>
    <edge id=":B1_8" function="internal">
        <lane id=":B1_8_0" index="0" speed="6.51" length="9.03" shape="254.80,239.60 255.15,242.05 256.20,243.80 257.95,244.85 260.40,245.20"/>
    </edge>
    <edge id=":B1_9" function="internal">
        <lane id=":B1_9_0" index="0" speed="13.89" length="20.80" shape="254.80,239.60 254.80,260.40"/>
        <lane id=":B1_9_1" index="1" speed="13.89" length="20.80" shape="251.60,239.60 251.60,260.40"/>
    </edge>
    <edge id=":B1_11" function="internal">
        <lane id=":B1_11_0" index="0" speed="9.26" length="5.01" shape="251.60,239.60 250.89,244.56"/>
    </edge>
    <edge id=":B1_17" function="internal">
        <lane id=":B1_17_0" index="0" speed="9.26" length="14.34" shape="250.89,244.56 250.85,244.85 248.60,248.60 244.85,250.85 239.60,251.60"/>
    </edge>
    <edge id=":B1_12" function="internal">
        <lane id=":B1_12_0" index="0" speed="6.51" length="9.03" shape="239.60,245.20 242.05,244.85 243.80,243.80 244.85,242.05 245.20,239.60"/>
    </edge>
    <edge id=":B1_13" function="internal">
        <lane id=":B1_13_0" index="0" speed="13.89" length="20.80" shape="239.60,245.20 260.40,245.20"/>
        <lane id=":B1_13_1" index="1" speed="13.89" length="20.80" shape="239.60,248.40 260.40,248.40"/>
    </edge>
    <edge id=":B1_15" function="internal">
        <lane id=":B1_15_0" index="0" speed="9.26" length="19.35" shape="239.60,248.40 244.85,249.15 248.60,251.40 250.85,255.15 251.60,260.40"/>
    </edge>
    <edge id=":B2_0" function="internal">
        <lane id=":B2_0_0" index="0" speed="6.51" length="9.03" shape="245.20,510.40 244.85,507.95 243.80,506.20 242.05,505.15 239.60,504.80"/>
    </edge>
    <edge id=":B2_1" function="internal">
        <lane id=":B2_1_0" index="0" speed="13.89" length="20.80" shape="245.20,510.40 245.20,489.60"/>
        <lane id=":B2_1_1" index="1" speed="13.89" length="20.80" shape="248.40,510.40 248.40,489.60"/>
    </edge>
    <edge id=":B2_3" function="internal">
        <lane id=":B2_3_0" index="0" speed="9.26" length="5.01" shape="248.40,510.40 249.11,505.44"/>
    </edge>
    <edge id=":B2_16" function="internal">
        <lane id=":B2_16_0" index="0" speed="9.26" length="14.34" shape="249.11,505.44 249.15,505.15 251.40,501.40 255.15,499.15 260.40,498.40"/>
    </edge>
    <edge id=":B2_4" function="internal">
        <lane id=":B2_4_0" index="0" speed="6.51" length="9.03" shape="260.40,504.80 257.95,505.15 256.20,506.20 255.15,507.95 254.80,510.40"/>
    </edge>
    <edge id=":B2_5" function="internal">
        <lane id=":B2_5_0" index="0" speed="13.89" length="20.80" shape="260.40,504.80 239.60,504.80"/>
        <lane id=":B2_5_1" index="1" speed="13.89" length="20.80" shape="260.40,501.60 239.60,501.60"/>
    </edge>
    <edge id=":B2_7" function="internal">
        <lane id=":B2_7_0" index="0" speed="9.26" length="19.35" shape="260.40,501.60 255.15,500.85 251.40,498.60 249.15,494.85 248.40,489.60"/>
    </edge>
    <edge id=":B2_8" function="internal">
        <lane id=":B2_8_0" index="0" speed="6.51" length="9.03" shape="254.80,489.60 255.15,492.05 256.20,493.80 257.95,494.85 260.40,495.20"/>
    </edge>
    <edge id=":B2_9" function="internal">
        <lane id=":B2_9_0" index="0" speed="13.89" length="20.80" shape="254.80,489.60 254.80,510.40"/>
        <lane id=":B2_9_1" index="1" speed="13.89" length="20.80" shape="251.60,489.60 251.60,510.40"/>
    </edge>
    <edge id=":B2_11" function="internal">
        <lane id=":B2_11_0" index="0" speed="9.26" length="5.01" shape="251.60,489.60 250.89,494.56"/>
    </edge>
    <edge id=":B2_17" function="internal">
        <lane id=":B2_17_0" index="0" speed="9.26" length="14.34" shape="250.89,494.56 250.85,494.85 248.60,498.60 244.85,500.85 239.60,501.60"/>
    </edge>
    <edge id=":B2_12" function="internal">
        <lane id=":B2_12_0" index="0" speed="6.51" length="9.03" shape="239.60,495.20 242.05,494.85 243.80,493.80 244.85,492.05 245.20,489.60"/>
    </edge>
    <edge id=":B2_13" function="internal">
        <lane id=":B2_13_0" index="0" speed="13.89" length="20.80" shape="239.60,495.20 260.40,495.20"/>
        <lane id=":B2_13_1" index="1" speed="13.89" length="20.80" shape="239.60,498.40 260.40,498.40"/>
    </edge>
    <edge id=":B2_15" function="internal">
        <lane id=":B2_15_0" index="0" speed="9.26" length="19.35" shape="239.60,498.40 244.85,499.15 248.60,501.40 250.85,505.15 251.60,510.40"/>
    </edge>
    <edge id=":B3_0" function="internal">
        <lane id=":B3_0_0" index="0" speed="6.51" length="9.03" shape="245.20,760.40 244.85,757.95 243.80,756.20 242.05,755.15 239.60,754.80"/>
    </edge>
    <edge id=":B3_1" function="internal">
        <lane id=":B3_1_0" index="0" speed="13.89" length="20.80" shape="245.20,760.40 245.20,739.60"/>
        <lane id=":B3_1_1" index="1" speed="13.89" length="20.80" shape="248.40,760.40 248.40,739.60"/>
    </edge>
    <edge id=":B3_3" function="internal">
        <lane id=":B3_3_0" index="0" speed="9.26" length="5.01" shape="248.40,760.40 249.11,755.44"/>
    </edge>
    <edge id=":B3_16" function="internal">
        <lane id=":B3_16_0" index="0" speed="9.26" length="14.34" shape="249.11,755.44 249.15,755.15 251.40,751.40 255.15,749.15 260.40,748.40"/>
    </edge>
    <edge id=":B3_4" function="internal">
        <lane id=":B3_4_0" index="0" speed="6.51" length="9.03" shape="260.40,754.80 257.95,755.15 256.20,756.20 255.15,757.95 254.80,760.40"/>
    </edge>
    <edge id=":B3_5" function="internal">
        <lane id=":B3_5_0" index="0" speed="13.89" length="20.80" shape="260.40,754.80 239.60,754.80"/>
        <lane id=":B3_5_1" index="1" speed="13.89" length="20.80" shape="260.40,751.60 239.60,751.60"/>
    </edge>
    <edge id=":B3_7" function="internal">
        <lane id=":B3_7_0" index="0" speed="9.26" length="19.35" shape="260.40,751.60 255.15,750.85 251.40,748.60 249.15,744.85 248.40,739.60"/>
    </edge>
    <edge id=":B3_8" function="internal">
        <lane id=":B3_8_0" index="0" speed="6.51" length="9.03" shape="254.80,739.60 255.15,742.05 256.20,743.80 257.95,744.85 260.40,745.20"/>
    </edge>
    <edge id=":B3_9" function="internal">
        <lane id=":B3_9_0" index="0" speed="13.89" length="20.80" shape="254.80,739.60 254.80,760.40"/>
        <lane id=":B3_9_1" index="1" speed="13.89" length="20.80" shape="251.60,739.60 251.60,760.40"/>
    </edge>
    <edge id=":B3_11" function="internal">
        <lane id=":B3_11_0" index="0" speed="9.26" length="5.01" shape="251.60,739.60 250.89,744.56"/>
    </edge>
    <edge id=":B3_17" function="internal">
        <lane id=":B3_17_0" index="0" speed="9.26" length="14.34" shape="250.89,744.56 250.85,744.85 248.60,748.60 244.85,750.85 239.60,751.60"/>
    </edge>
    <edge id=":B3_12" function="internal">
        <lane id=":B3_12_0" index="0" speed="6.51" length="9.03" shape="239.60,745.20 242.05,744.85 243.80,743.80 244.85,742.05 245.20,739.60"/>
    </edge>
    <edge id=":B3_13" function="internal">
        <lane id=":B3_13_0" index="0" speed="13.89" length="20.80" shape="239.60,745.20 260.40,745.20"/>
        <lane id=":B3_13_1" index="1" speed="13.89" length="20.80" shape="239.60,748.40 260.40,748.40"/>
    </edge>
    <edge id=":B3_15" function="internal">
        <lane id=":B3_15_0" index="0" speed="9.26" length="19.35" shape="239.60,748.40 244.85,749.15 248.60,751.40 250.85,755.15 251.60,760.40"/>
    </edge>
    <edge id=":B4_0" function="internal">
        <lane id=":B4_0_0" index="0" speed="13.89" length="20.80" shape="260.40,1004.80 239.60,1004.80"/>
        <lane id=":B4_0_1" index="1" speed="13.89" length="20.80" shape="260.40,1001.60 239.60,1001.60"/>
    </edge>
    <edge id=":B4_2" function="internal">
        <lane id=":B4_2_0" index="0" speed="9.26" length="5.01" shape="260.40,1001.60 255.44,1000.89"/>
    </edge>
    <edge id=":B4_8" function="internal">
        <lane id=":B4_8_0" index="0" speed="9.26" length="14.34" shape="255.44,1000.89 255.15,1000.85 251.40,998.60 249.15,994.85 248.40,989.60"/>
    </edge>
    <edge id=":B4_3" function="internal">
        <lane id=":B4_3_0" index="0" speed="6.51" length="9.03" shape="254.80,989.60 255.15,992.05 256.20,993.80 257.95,994.85 260.40,995.20"/>
    </edge>
    <edge id=":B4_4" function="internal">
        <lane id=":B4_4_0" index="0" speed="9.26" length="19.35" shape="251.60,989.60 250.85,994.85 248.60,998.60 244.85,1000.85 239.60,1001.60"/>
    </edge>
    <edge id=":B4_5" function="internal">
        <lane id=":B4_5_0" index="0" speed="6.51" length="9.03" shape="239.60,995.20 242.05,994.85 243.80,993.80 244.85,992.05 245.20,989.60"/>
    </edge>
    <edge id=":B4_6" function="internal">
        <lane id=":B4_6_0" index="0" speed="13.89" length="20.80" shape="239.60,995.20 260.40,995.20"/>
        <lane id=":B4_6_1" index="1" speed="13.89" length="20.80" shape="239.60,998.40 260.40,998.40"/>
    </edge>
    <edge id=":C0_0" function="internal">
        <lane id=":C0_0_0" index="0" speed="6.51" length="9.03" shape="495.20,10.40 494.85,7.95 493.80,6.20 492.05,5.15 489.60,4.80"/>
    </edge>
    <edge id=":C0_1" function="internal">
        <lane id=":C0_1_0" index="0" speed="9.26" length="19.35" shape="498.40,10.40 499.15,5.15 501.40,1.40 505.15,-0.85 510.40,-1.60"/>
    </edge>
    <edge id=":C0_2" function="internal">
        <lane id=":C0_2_0" index="0" speed="6.51" length="9.03" shape="510.40,4.80 507.95,5.15 506.20,6.20 505.15,7.95 504.80,10.40"/>
    </edge>
    <edge id=":C0_3" function="internal">
        <lane id=":C0_3_0" index="0" speed="13.89" length="20.80" shape="510.40,4.80 489.60,4.80"/>
        <lane id=":C0_3_1" index="1" speed="13.89" length="20.80" shape="510.40,1.60 489.60,1.60"/>
    </edge>
    <edge id=":C0_5" function="internal">
        <lane id=":C0_5_0" index="0" speed="13.89" length="20.80" shape="489.60,-4.80 510.40,-4.80"/>
        <lane id=":C0_5_1" index="1" speed="13.89" length="20.80" shape="489.60,-1.60 510.40,-1.60"/>
    </edge>
    <edge id=":C0_7" function="internal">
        <lane id=":C0_7_0" index="0" speed="9.26" length="5.01" shape="489.60,-1.60 494.56,-0.89"/>
    </edge>
    <edge id=":C0_8" function="internal">
        <lane id=":C0_8_0" index="0" speed="9.26" length="14.34" shape="494.56,-0.89 494.85,-0.85 498.60,1.40 500.85,5.15 501.60,10.40"/>
    </edge>
    <edge id=":C1_0" function="internal">
        <lane id=":C1_0_0" index="0" speed="6.51" length="9.03" shape="495.20,260.40 494.85,257.95 493.80,256.20 492.05,255.15 489.60,254.80"/>
    </edge>
    <edge id=":C1_1" function="internal">
        <lane id=":C1_1_0" index="0" speed="13.89" length="20.80" shape="495.20,260.40 495.20,239.60"/>
        <lane id=":C1_1_1" index="1" speed="13.89" length="20.80" shape="498.40,260.40 498.40,239.60"/>
    </edge>
    <edge id=":C1_3" function="internal">
        <lane id=":C1_3_0" index="0" speed="9.26" length="5.01" shape="498.40,260.40 499.11,255.44"/>
    </edge>
    <edge id=":C1_16" function="internal">
        <lane id=":C1_16_0" index="0" speed="9.26" length="14.34" shape="499.11,255.44 499.15,255.15 501.40,251.40 505.15,249.15 510.40,248.40"/>
    </edge>
    <edge id=":C1_4" function="internal">
        <lane id=":C1_4_0" index="0" speed="6.51" length="9.03" shape="510.40,254.80 507.95,255.15 506.20,256.20 505.15,257.95 504.80,260.40"/>
    </edge>
    <edge id=":C1_5" function="internal">
        <lane id=":C1_5_0" index="0" speed="13.89" length="20.80" shape="510.40,254.80 489.60,254.80"/>
        <lane id=":C1_5_1" index="1" speed="13.89" length="20.80" shape="510.40,251.60 489.60,251.60"/>
    </edge>
    <edge id=":C1_7" function="internal">
        <lane id=":C1_7_0" index="0" speed="9.26" length="19.35" shape="510.40,251.60 505.15,250.85 501.40,248.60 499.15,244.85 498.40,239.60"/>
    </edge>
    <edge id=":C1_8" function="internal">
        <lane id=":C1_8_0" index="0" speed="6.51" length="9.03" shape="504.80,239.60 505.15,242.05 506.20,243.80 507.95,244.85 510.40,245.20"/>
    </edge>
    <edge id=":C1_9" function="internal">
        <lane id=":C1_9_0" index="0" speed="13.89" length="20.80" shape="504.80,239.60 504.80,260.40"/>
        <lane id=":C1_9_1" index="1" speed="13.89" length="20.80" shape="501.60,239.60 501.60,260.40"/>
    </edge>
    <edge id=":C1_11" function="internal">
        <lane id=":C1_11_0" index="0" speed="9.26" length="5.01" shape="501.60,239.60 500.89,244.56"/>
    </edge>
    <edge id=":C1_17" function="internal">
        <lane id=":C1_17_0" index="0" speed="9.26" length="14.34" shape="500.89,244.56 500.85,244.85 498.60,248.60 494.85,250.85 489.60,251.60"/>
    </edge>
    <edge id=":C1_12" function="internal">
        <lane id=":C1_12_0" index="0" speed="6.51" length="9.03" shape="489.60,245.20 492.05,244.85 493.80,243.80 494.85,242.05 495.20,239.60"/>
    </edge>
    <edge id=":C1_13" function="internal">
        <lane id=":C1_13_0" index="0" speed="13.89" length="20.80" shape="489.60,245.20 510.40,245.20"/>
        <lane id=":C1_13_1" index="1" speed="13.89" length="20.80" shape="489.60,248.40 510.40,248.40"/>
    </edge>
    <edge id=":C1_15" function="internal">
        <lane id=":C1_15_0" index="0" speed="9.26" length="19.35" shape="489.60,248.40 494.85,249.15 498.60,251.40 500.85,255.15 501.60,260.40"/>
    </edge>
    <edge id=":C2_0" function="internal">
        <lane id=":C2_0_0" index="0" speed="6.51" length="9.03" shape="495.20,510.40 494.85,507.95 493.80,506.20 492.05,505.15 489.60,504.80"/>
    </edge>
    <edge id=":C2_1" function="internal">
        <lane id=":C2_1_0" index="0" speed="13.89" length="20.80" shape="495.20,510.40 495.20,489.60"/>
        <lane id=":C2_1_1" index="1" speed="13.89" length="20.80" shape="498.40,510.40 498.40,489.60"/>
    </edge>
    <edge id=":C2_3" function="internal">
        <lane id=":C2_3_0" index="0" speed="9.26" length="5.01" shape="498.40,510.40 499.11,505.44"/>
    </edge>
    <edge id=":C2_16" function="internal">
        <lane id=":C2_16_0" index="0" speed="9.26" length="14.34" shape="499.11,505.44 499.15,505.15 501.40,501.40 505.15,499.15 510.40,498.40"/>
    </edge>
    <edge id=":C2_4" function="internal">
        <lane id=":C2_4_0" index="0" speed="6.51" length="9.03" shape="510.40,504.80 507.95,505.15 506.20,506.20 505.15,507.95 504.80,510.40"/>
    </edge>
    <edge id=":C2_5" function="internal">
        <lane id=":C2_5_0" index="0" speed="13.89" length="20.80" shape="510.40,504.80 489.60,504.80"/>
        <lane id=":C2_5_1" index="1" speed="13.89" length="20.80" shape="510.40,501.60 489.60,501.60"/>
    </edge>
    <edge id=":C2_7" function="internal">
        <lane id=":C2_7_0" index="0" speed="9.26" length="19.35" shape="510.40,501.60 505.15,500.85 501.40,498.60 499.15,494.85 498.40,489.60"/>
    </edge>
    <edge id=":C2_8" function="internal">
        <lane id=":C2_8_0" index="0" speed="6.51" length="9.03" shape="504.80,489.60 505.15,492.05 506.20,493.80 507.95,494.85 510.40,495.20"/>
    </edge>
    <edge id=":C2_9" function="internal">
        <lane id=":C2_9_0" index="0" speed="13.89" length="20.80" shape="504.80,489.60 504.80,510.40"/>
        <lane id=":C2_9_1" index="1" speed="13.89" length="20.80" shape="501.60,489.60 501.60,510.40"/>
    </edge>
    <edge id=":C2_11" function="internal">
        <lane id=":C2_11_0" index="0" speed="9.26" length="5.01" shape="501.60,489.60 500.89,494.56"/>
    </edge>
    <edge id=":C2_17" function="internal">
        <lane id=":C2_17_0" index="0" speed="9.26" length="14.34" shape="500.89,494.56 500.85,494.85 498.60,498.60 494.85,500.85 489.60,501.60"/>
    </edge>
    <edge id=":C2_12" function="internal">
        <lane id=":C2_12_0" index="0" speed="6.51" length="9.03" shape="489.60,495.20 492.05,494.85 493.80,493.80 494.85,492.05 495.20,489.60"/>
    </edge>
    <edge id=":C2_13" function="internal">
        <lane id=":C2_13_0" index="0" speed="13.89" length="20.80" shape="489.60,495.20 510.40,495.20"/>
        <lane id=":C2_13_1" index="1" speed="13.89" length="20.80" shape="489.60,498.40 510.40,498.40"/>
    </edge>
    <edge id=":C2_15" function="internal">
        <lane id=":C2_15_0" index="0" speed="9.26" length="19.35" shape="489.60,498.40 494.85,499.15 498.60,501.40 500.85,505.15 501.60,510.40"/>
    </edge>
    <edge id=":C3_0" function="internal">
        <lane id=":C3_0_0" index="0" speed="6.51" length="9.03" shape="495.20,760.40 494.85,757.95 493.80,756.20 492.05,755.15 489.60,754.80"/>
    </edge>
    <edge id=":C3_1" function="internal">
        <lane id=":C3_1_0" index="0" speed="13.89" length="20.80" shape="495.20,760.40 495.20,739.60"/>
        <lane id=":C3_1_1" index="1" speed="13.89" length="20.80" shape="498.40,760.40 498.40,739.60"/>
    </edge>
    <edge id=":C3_3" function="internal">
        <lane id=":C3_3_0" index="0" speed="9.26" length="5.01" shape="498.40,760.40 499.11,755.44"/>
    </edge>
    <edge id=":C3_16" function="internal">
        <lane id=":C3_16_0" index="0" speed="9.26" length="14.34" shape="499.11,755.44 499.15,755.15 501.40,751.40 505.15,749.15 510.40,748.40"/>
    </edge>
    <edge id=":C3_4" function="internal">
        <lane id=":C3_4_0" index="0" speed="6.51" length="9.03" shape="510.40,754.80 507.95,755.15 506.20,756.20 505.15,757.95 504.80,760.40"/>
    </edge>
    <edge id=":C3_5" function="internal">
        <lane id=":C3_5_0" index="0" speed="13.89" length="20.80" shape="510.40,754.80 489.60,754.80"/>
        <lane id=":C3_5_1" index="1" speed="13.89" length="20.80" shape="510.40,751.60 489.60,751.60"/>
    </edge>
    <edge id=":C3_7" function="internal">
        <lane id=":C3_7_0" index="0" speed="9.26" length="19.35" shape="510.40,751.60 505.15,750.85 501.40,748.60 499.15,744.85 498.40,739.60"/>
    </edge>
    <edge id=":C3_8" function="internal">
        <lane id=":C3_8_0" index="0" speed="6.51" length="9.03" shape="504.80,739.60 505.15,742.05 506.20,743.80 507.95,744.85 510.40,745.20"/>
    </edge>
    <edge id=":C3_9" function="internal">
        <lane id=":C3_9_0" index="0" speed="13.89" length="20.80" shape="504.80,739.60 504.80,760.40"/>
        <lane id=":C3_9_1" index="1" speed="13.89" length="20.80" shape="501.60,739.60 501.60,760.40"/>
    </edge>
    <edge id=":C3_11" function="internal">
        <lane id=":C3_11_0" index="0" speed="9.26" length="5.01" shape="501.60,739.60 500.89,744.56"/>
    </edge>
    <edge id=":C3_17" function="internal">
        <lane id=":C3_17_0" index="0" speed="9.26" length="14.34" shape="500.89,744.56 500.85,744.85 498.60,748.60 494.85,750.85 489.60,751.60"/>
    </edge>
    <edge id=":C3_12" function="internal">
        <lane id=":C3_12_0" index="0" speed="6.51" length="9.03" shape="489.60,745.20 492.05,744.85 493.80,743.80 494.85,742.05 495.20,739.60"/>
    </edge>
    <edge id=":C3_13" function="internal">
        <lane id=":C3_13_0" index="0" speed="13.89" length="20.80" shape="489.60,745.20 510.40,745.20"/>
        <lane id=":C3_13_1" index="1" speed="13.89" length="20.80" shape="489.60,748.40 510.40,748.40"/>
    </edge>
    <edge id=":C3_15" function="internal">
        <lane id=":C3_15_0" index="0" speed="9.26" length="19.35" shape="489.60,748.40 494.85,749.15 498.60,751.40 500.85,755.15 501.60,760.40"/>
    </edge>
    <edge id=":C4_0" function="internal">
        <lane id=":C4_0_0" index="0" speed="13.89" length="20.80" shape="510.40,1004.80 489.60,1004.80"/>
        <lane id=":C4_0_1" index="1" speed="13.89" length="20.80" shape="510.40,1001.60 489.60,1001.60"/>
    </edge>
    <edge id=":C4_2" function="internal">
        <lane id=":C4_2_0" index="0" speed="9.26" length="5.01" shape="510.40,1001.60 505.44,1000.89"/>
    </edge>
    <edge id=":C4_8" function="internal">
        <lane id=":C4_8_0" index="0" speed="9.26" length="14.34" shape="505.44,1000.89 505.15,1000.85 501.40,998.60 499.15,994.85 498.40,989.60"/>
    </edge>
    <edge id=":C4_3" function="internal">
        <lane id=":C4_3_0" index="0" speed="6.51" length="9.03" shape="504.80,989.60 505.15,992.05 506.20,993.80 507.95,994.85 510.40,995.20"/>
    </edge>
    <edge id=":C4_4" function="internal">
        <lane id=":C4_4_0" index="0" speed="9.26" length="19.35" shape="501.60,989.60 500.85,994.85 498.60,998.60 494.85,1000.85 489.60,1001.60"/>
    </edge>