<?xml version="1.0" ?>
<routes>
  <vType id="car" accel="2.6" decel="4.5" sigma="0.5" tau="1.0" minGap="2.5" maxSpeed="13.89" color="1,1,0"/>
  <flow id="flow_0" type="car" begin="0" end="600" period="89" from="D0D1" to="A1A0" departLane="random" departSpeed="random"/>
  <flow id="flow_1" type="car" begin="0" end="600" period="89" from="E2E1" to="E1D1" departLane="random" departSpeed="random"/>
  <flow id="flow_2" type="car" begin="0" end="600" period="89" from="C1C2" to="E1E0" departLane="random" departSpeed="random"/>
  <flow id="flow_3" type="car" begin="0" end="600" period="89" from="E0D0" to="E3E4" departLane="random" departSpeed="random"/>
  <flow id="flow_4" type="car" begin="0" end="600" period="89" from="C1C0" to="C4D4" departLane="random" departSpeed="random"/>
  <flow id="flow_5" type="car" begin="0" end="600" period="89" from="A3B3" to="B0C0" departLane="random" departSpeed="random"/>
  <flow id="flow_6" type="car" begin="0" end="600" period="89" from="A1A0" to="D0E0" departLane="random" departSpeed="random"/>
  <flow id="flow_7" type="car" begin="0" end="600" period="89" from="D1C1" to="D1E1" departLane="random" departSpeed="random"/>
  <flow id="flow_8" type="car" begin="0" end="600" period="89" from="C3C4" to="D4E4" departLane="random" departSpeed="random"/>
  <flow id="flow_9" type="car" begin="0" end="600" period="89" from="A1A0" to="A4B4" departLane="random" departSpeed="random"/>
  <flow id="flow_10" type="car" begin="0" end="600" period="89" from="B2B1" to="E3E4" departLane="random" departSpeed="random"/>
  <flow id="flow_11" type="car" begin="0" end="600" period="89" from="E3E2" to="C1C2" departLane="random" departSpeed="random"/>
  <flow id="flow_12" type="car" begin="0" end="600" period="89" from="A4A3" to="C4D4" departLane="random" departSpeed="random"/>
  <flow id="flow_13" type="car" begin="0" end="600" period="89" from="E2E1" to="A0B0" departLane="random" departSpeed="random"/>
  <flow id="flow_14" type="car" begin="0" end="600" period="89" from="A1A2" to="B3A3" departLane="random" departSpeed="random"/>
  <flow id="flow_15" type="car" begin="0" end="600" period="89" from="B3B2" to="E2E1" departLane="random" departSpeed="random"/>
  <flow id="flow_16" type="car" begin="0" end="600" period="89" from="B1A1" to="C1C2" departLane="random" departSpeed="random"/>
  <flow id="flow_17" type="car" begin="0" end="600" period="89" from="B3B2" to="E0D0" departLane="random" departSpeed="random"/>
  <flow id="flow_18" type="car" begin="0" end="600" period="89" from="C1C0" to="E2D2" departLane="random" departSpeed="random"/>
  <flow id="flow_19" type="car" begin="0" end="600" period="89" from="D0E0" to="C2C3" departLane="random" departSpeed="random"/>
  <flow id="flow_20" type="car" begin="0" end="600" period="89" from="C2D2" to="D4E4" departLane="random" departSpeed="random"/>
  <flow id="flow_21" type="car" begin="0" end="600" period="89" from="D2D1" to="C0B0" departLane="random" departSpeed="random"/>
  <flow id="flow_22" type="car" begin="0" end="600" period="89" from="B3C3" to="D4D3" departLane="random" departSpeed="random"/>
  <flow id="flow_23" type="car" begin="0" end="600" period="89" from="D1D0" to="E2D2" departLane="random" departSpeed="random"/>
  <flow id="flow_24" type="car" begin="0" end="600" period="89" from="C0C1" to="E4E3" departLane="random" departSpeed="random"/>
  <flow id="flow_25" type="car" begin="0" end="600" period="89" from="B2A2" to="C3C2" departLane="random" departSpeed="random"/>
  <flow id="flow_26" type="car" begin="0" end="600" period="89" from="B4A4" to="B1B2" departLane="random" departSpeed="random"/>
  <flow id="flow_27" type="car" begin="0" end="600" period="89" from="C0D0" to="C0B0" departLane="random" departSpeed="random"/>
  <flow id="flow_28" type="car" begin="0" end="600" period="89" from="C2C1" to="A2A3" departLane="random" departSpeed="random"/>
  <flow id="flow_29" type="car" begin="0" end="600" period="89" from="C0C1" to="D1E1" departLane="random" departSpeed="random"/>
  <flow id="flow_30" type="car" begin="0" end="600" period="89" from="D0E0" to="E2D2" departLane="random" departSpeed="random"/>
  <flow id="flow_31" type="car" begin="0" end="600" period="89" from="E2E1" to="C3B3" departLane="random" departSpeed="random"/>
  <flow id="flow_32" type="car" begin="0" end="600" period="89" from="C2C3" to="A1A2" departLane="random" departSpeed="random"/>
  <flow id="flow_33" type="car" begin="0" end="600" period="89" from="C3C2" to="D2C2" departLane="random" departSpeed="random"/>
  <flow id="flow_34" type="car" begin="0" end="600" period="89" from="C1D1" to="E2E1" departLane="random" departSpeed="random"/>
  <flow id="flow_35" type="car" begin="0" end="600" period="89" from="D0C0" to="D4E4" departLane="random" departSpeed="random"/>
  <flow id="flow_36" type="car" begin="0" end="600" period="89" from="A2A1" to="D4D3" departLane="random" departSpeed="random"/>
  <flow id="flow_37" type="car" begin="0" end="600" period="89" from="E1D1" to="A1A2" departLane="random" departSpeed="random"/>
  <flow id="flow_38" type="car" begin="0" end="600" period="89" from="C3B3" to="D2E2" departLane="random" departSpeed="random"/>
  <flow id="flow_39" type="car" begin="0" end="600" period="89" from="E1E2" to="A4B4" departLane="random" departSpeed="random"/>
  <flow id="flow_40" type="car" begin="0" end="600" period="89" from="C1C2" to="B2B3" departLane="random" departSpeed="random"/>
  <flow id="flow_41" type="car" begin="0" end="600" period="89" from="B1B0" to="D1E1" departLane="random" departSpeed="random"/>
  <flow id="flow_42" type="car" begin="0" end="600" period="89" from="B0C0" to="C2B2" departLane="random" departSpeed="random"/>
  <flow id="flow_43" type="car" begin="0" end="600" period="89" from="D3D2" to="E1E2" departLane="random" departSpeed="random"/>
  <flow id="flow_44" type="car" begin="0" end="600" period="89" from="C0D0" to="C1C2" departLane="random" departSpeed="random"/>
  <flow id="flow_45" type="car" begin="0" end="600" period="89" from="A4B4" to="B2C2" departLane="random" departSpeed="random"/>
  <flow id="flow_46" type="car" begin="0" end="600" period="89" from="D1C1" to="C3C4" departLane="random" departSpeed="random"/>
  <flow id="flow_47" type="car" begin="0" end="600" period="89" from="D2D3" to="C3B3" departLane="random" departSpeed="random"/>
  <flow id="flow_48" type="car" begin="0" end="600" period="89" from="A1B1" to="E1E2" departLane="random" departSpeed="random"/>
  <flow id="flow_49" type="car" begin="0" end="600" period="89" from="E1E0" to="D1D2" departLane="random" departSpeed="random"/>
</routes>
