<?xml version="1.0" encoding="UTF-8"?>
<!-- Urban Grid: 500m x 500m, 3x3 intersections, 0-60 km/h -->
<net version="1.9" junctionCornerDetail="5" limitTurnSpeed="5.50" xmlns:xsi="http://www.w3.org/2001/XMLSchema-instance" xsi:noNamespaceSchemaLocation="http://sumo.dlr.de/xsd/net_file.xsd">
    <location netOffset="0.00,0.00" convBoundary="0.00,0.00,500.00,500.00" origBoundary="-180.0,-90.0,180.0,90.0" projParameter="!"/>

    <!-- Edges: grid 3x3 intersections at (0,0),(250,0),(500,0),(0,250),(250,250),(500,250),(0,500),(250,500),(500,500) -->
    <!-- Horizontal edges -->
    <edge id="e0_0_to_250_0" from="n_0_0" to="n_250_0" priority="2" numLanes="2" speed="16.67" spreadType="center" name="hor_0_0">
        <lane id="e0_0_to_250_0_0" index="0" speed="16.67" length="250.00" shape="0.00,-1.60 250.00,-1.60"/>
        <lane id="e0_0_to_250_0_1" index="1" speed="16.67" length="250.00" shape="0.00,1.60 250.00,1.60"/>
    </edge>
    <edge id="e250_0_to_0_0" from="n_250_0" to="n_0_0" priority="2" numLanes="2" speed="16.67" spreadType="center" name="hor_250_0_rev">
        <lane id="e250_0_to_0_0_0" index="0" speed="16.67" length="250.00" shape="250.00,1.60 0.00,1.60"/>
        <lane id="e250_0_to_0_0_1" index="1" speed="16.67" length="250.00" shape="250.00,-1.60 0.00,-1.60"/>
    </edge>
    <edge id="e250_0_to_500_0" from="n_250_0" to="n_500_0" priority="2" numLanes="2" speed="16.67" spreadType="center">
        <lane id="e250_0_to_500_0_0" index="0" speed="16.67" length="250.00" shape="250.00,-1.60 500.00,-1.60"/>
        <lane id="e250_0_to_500_0_1" index="1" speed="16.67" length="250.00" shape="250.00,1.60 500.00,1.60"/>
    </edge>
    <edge id="e500_0_to_250_0" from="n_500_0" to="n_250_0" priority="2" numLanes="2" speed="16.67" spreadType="center">
        <lane id="e500_0_to_250_0_0" index="0" speed="16.67" length="250.00" shape="500.00,1.60 250.00,1.60"/>
        <lane id="e500_0_to_250_0_1" index="1" speed="16.67" length="250.00" shape="500.00,-1.60 250.00,-1.60"/>
    </edge>
    <edge id="e0_250_to_250_250" from="n_0_250" to="n_250_250" priority="2" numLanes="2" speed="16.67" spreadType="center">
        <lane id="e0_250_to_250_250_0" index="0" speed="16.67" length="250.00" shape="0.00,248.40 250.00,248.40"/>
        <lane id="e0_250_to_250_250_1" index="1" speed="16.67" length="250.00" shape="0.00,251.60 250.00,251.60"/>
    </edge>
    <edge id="e250_250_to_0_250" from="n_250_250" to="n_0_250" priority="2" numLanes="2" speed="16.67" spreadType="center">
        <lane id="e250_250_to_0_250_0" index="0" speed="16.67" length="250.00" shape="250.00,251.60 0.00,251.60"/>
        <lane id="e250_250_to_0_250_1" index="1" speed="16.67" length="250.00" shape="250.00,248.40 0.00,248.40"/>
    </edge>
    <edge id="e250_250_to_500_250" from="n_250_250" to="n_500_250" priority="2" numLanes="2" speed="16.67" spreadType="center">
        <lane id="e250_250_to_500_250_0" index="0" speed="16.67" length="250.00" shape="250.00,248.40 500.00,248.40"/>
        <lane id="e250_250_to_500_250_1" index="1" speed="16.67" length="250.00" shape="250.00,251.60 500.00,251.60"/>
    </edge>
    <edge id="e500_250_to_250_250" from="n_500_250" to="n_250_250" priority="2" numLanes="2" speed="16.67" spreadType="center">
        <lane id="e500_250_to_250_250_0" index="0" speed="16.67" length="250.00" shape="500.00,251.60 250.00,251.60"/>
        <lane id="e500_250_to_250_250_1" index="1" speed="16.67" length="250.00" shape="500.00,248.40 250.00,248.40"/>
    </edge>
    <edge id="e0_500_to_250_500" from="n_0_500" to="n_250_500" priority="2" numLanes="2" speed="16.67" spreadType="center">
        <lane id="e0_500_to_250_500_0" index="0" speed="16.67" length="250.00" shape="0.00,498.40 250.00,498.40"/>
        <lane id="e0_500_to_250_500_1" index="1" speed="16.67" length="250.00" shape="0.00,501.60 250.00,501.60"/>
    </edge>
    <edge id="e250_500_to_0_500" from="n_250_500" to="n_0_500" priority="2" numLanes="2" speed="16.67" spreadType="center">
        <lane id="e250_500_to_0_500_0" index="0" speed="16.67" length="250.00" shape="250.00,501.60 0.00,501.60"/>
        <lane id="e250_500_to_0_500_1" index="1" speed="16.67" length="250.00" shape="250.00,498.40 0.00,498.40"/>
    </edge>
    <edge id="e250_500_to_500_500" from="n_250_500" to="n_500_500" priority="2" numLanes="2" speed="16.67" spreadType="center">
        <lane id="e250_500_to_500_500_0" index="0" speed="16.67" length="250.00" shape="250.00,498.40 500.00,498.40"/>
        <lane id="e250_500_to_500_500_1" index="1" speed="16.67" length="250.00" shape="250.00,501.60 500.00,501.60"/>
    </edge>
    <edge id="e500_500_to_250_500" from="n_500_500" to="n_250_500" priority="2" numLanes="2" speed="16.67" spreadType="center">
        <lane id="e500_500_to_250_500_0" index="0" speed="16.67" length="250.00" shape="500.00,501.60 250.00,501.60"/>
        <lane id="e500_500_to_250_500_1" index="1" speed="16.67" length="250.00" shape="500.00,498.40 250.00,498.40"/>
    </edge>

    <!-- Vertical edges -->
    <edge id="e0_0_to_0_250" from="n_0_0" to="n_0_250" priority="2" numLanes="2" speed="16.67" spreadType="center">
        <lane id="e0_0_to_0_250_0" index="0" speed="16.67" length="250.00" shape="1.60,0.00 1.60,250.00"/>
        <lane id="e0_0_to_0_250_1" index="1" speed="16.67" length="250.00" shape="-1.60,0.00 -1.60,250.00"/>
    </edge>
    <edge id="e0_250_to_0_0" from="n_0_250" to="n_0_0" priority="2" numLanes="2" speed="16.67" spreadType="center">
        <lane id="e0_250_to_0_0_0" index="0" speed="16.67" length="250.00" shape="-1.60,250.00 -1.60,0.00"/>
        <lane id="e0_250_to_0_0_1" index="1" speed="16.67" length="250.00" shape="1.60,250.00 1.60,0.00"/>
    </edge>
    <edge id="e0_250_to_0_500" from="n_0_250" to="n_0_500" priority="2" numLanes="2" speed="16.67" spreadType="center">
        <lane id="e0_250_to_0_500_0" index="0" speed="16.67" length="250.00" shape="1.60,250.00 1.60,500.00"/>
        <lane id="e0_250_to_0_500_1" index="1" speed="16.67" length="250.00" shape="-1.60,250.00 -1.60,500.00"/>
    </edge>
    <edge id="e0_500_to_0_250" from="n_0_500" to="n_0_250" priority="2" numLanes="2" speed="16.67" spreadType="center">
        <lane id="e0_500_to_0_250_0" index="0" speed="16.67" length="250.00" shape="-1.60,500.00 -1.60,250.00"/>
        <lane id="e0_500_to_0_250_1" index="1" speed="16.67" length="250.00" shape="1.60,500.00 1.60,250.00"/>
    </edge>
    <edge id="e250_0_to_250_250" from="n_250_0" to="n_250_250" priority="2" numLanes="2" speed="16.67" spreadType="center">
        <lane id="e250_0_to_250_250_0" index="0" speed="16.67" length="250.00" shape="251.60,0.00 251.60,250.00"/>
        <lane id="e250_0_to_250_250_1" index="1" speed="16.67" length="250.00" shape="248.40,0.00 248.40,250.00"/>
    </edge>
    <edge id="e250_250_to_250_0" from="n_250_250" to="n_250_0" priority="2" numLanes="2" speed="16.67" spreadType="center">
        <lane id="e250_250_to_250_0_0" index="0" speed="16.67" length="250.00" shape="248.40,250.00 248.40,0.00"/>
        <lane id="e250_250_to_250_0_1" index="1" speed="16.67" length="250.00" shape="251.60,250.00 251.60,0.00"/>
    </edge>
    <edge id="e250_250_to_250_500" from="n_250_250" to="n_250_500" priority="2" numLanes="2" speed="16.67" spreadType="center">
        <lane id="e250_250_to_250_500_0" index="0" speed="16.67" length="250.00" shape="251.60,250.00 251.60,500.00"/>
        <lane id="e250_250_to_250_500_1" index="1" speed="16.67" length="250.00" shape="248.40,250.00 248.40,500.00"/>
    </edge>
    <edge id="e250_500_to_250_250" from="n_250_500" to="n_250_250" priority="2" numLanes="2" speed="16.67" spreadType="center">
        <lane id="e250_500_to_250_250_0" index="0" speed="16.67" length="250.00" shape="248.40,500.00 248.40,250.00"/>
        <lane id="e250_500_to_250_250_1" index="1" speed="16.67" length="250.00" shape="251.60,500.00 251.60,250.00"/>
    </edge>
    <edge id="e500_0_to_500_250" from="n_500_0" to="n_500_250" priority="2" numLanes="2" speed="16.67" spreadType="center">
        <lane id="e500_0_to_500_250_0" index="0" speed="16.67" length="250.00" shape="501.60,0.00 501.60,250.00"/>
        <lane id="e500_0_to_500_250_1" index="1" speed="16.67" length="250.00" shape="498.40,0.00 498.40,250.00"/>
    </edge>
    <edge id="e500_250_to_500_0" from="n_500_250" to="n_500_0" priority="2" numLanes="2" speed="16.67" spreadType="center">
        <lane id="e500_250_to_500_0_0" index="0" speed="16.67" length="250.00" shape="498.40,250.00 498.40,0.00"/>
        <lane id="e500_250_to_500_0_1" index="1" speed="16.67" length="250.00" shape="501.60,250.00 501.60,0.00"/>
    </edge>
    <edge id="e500_250_to_500_500" from="n_500_250" to="n_500_500" priority="2" numLanes="2" speed="16.67" spreadType="center">
        <lane id="e500_250_to_500_500_0" index="0" speed="16.67" length="250.00" shape="501.60,250.00 501.60,500.00"/>
        <lane id="e500_250_to_500_500_1" index="1" speed="16.67" length="250.00" shape="498.40,250.00 498.40,500.00"/>
    </edge>
    <edge id="e500_500_to_500_250" from="n_500_500" to="n_500_250" priority="2" numLanes="2" speed="16.67" spreadType="center">
        <lane id="e500_500_to_500_250_0" index="0" speed="16.67" length="250.00" shape="498.40,500.00 498.40,250.00"/>
        <lane id="e500_500_to_500_250_1" index="1" speed="16.67" length="250.00" shape="501.60,500.00 501.60,250.00"/>
    </edge>

    <!-- Junctions -->
    <junction id="n_0_0" type="traffic_light" x="0.00" y="0.00" incLanes="e250_0_to_0_0_0 e250_0_to_0_0_1 e0_250_to_0_0_0 e0_250_to_0_0_1" intLanes="" shape=""/>
    <junction id="n_250_0" type="traffic_light" x="250.00" y="0.00" incLanes="e0_0_to_250_0_0 e0_0_to_250_0_1 e500_0_to_250_0_0 e500_0_to_250_0_1 e250_250_to_250_0_0 e250_250_to_250_0_1" intLanes="" shape=""/>
    <junction id="n_500_0" type="dead_end" x="500.00" y="0.00" incLanes="e250_0_to_500_0_0 e250_0_to_500_0_1 e500_250_to_500_0_0 e500_250_to_500_0_1" intLanes="" shape=""/>
    <junction id="n_0_250" type="traffic_light" x="0.00" y="250.00" incLanes="e0_0_to_0_250_0 e0_0_to_0_250_1 e250_250_to_0_250_0 e250_250_to_0_250_1 e0_500_to_0_250_0 e0_500_to_0_250_1" intLanes="" shape=""/>
    <junction id="n_250_250" type="traffic_light" x="250.00" y="250.00" incLanes="e0_250_to_250_250_0 e0_250_to_250_250_1 e500_250_to_250_250_0 e500_250_to_250_250_1 e250_0_to_250_250_0 e250_0_to_250_250_1 e250_500_to_250_250_0 e250_500_to_250_250_1" intLanes="" shape=""/>
    <junction id="n_500_250" type="traffic_light" x="500.00" y="250.00" incLanes="e250_250_to_500_250_0 e250_250_to_500_250_1 e500_0_to_500_250_0 e500_0_to_500_250_1 e500_500_to_500_250_0 e500_500_to_500_250_1" intLanes="" shape=""/>
    <junction id="n_0_500" type="dead_end" x="0.00" y="500.00" incLanes="e0_250_to_0_500_0 e0_250_to_0_500_1 e250_500_to_0_500_0 e250_500_to_0_500_1" intLanes="" shape=""/>
    <junction id="n_250_500" type="traffic_light" x="250.00" y="500.00" incLanes="e0_500_to_250_500_0 e0_500_to_250_500_1 e500_500_to_250_500_0 e500_500_to_250_500_1 e250_250_to_250_500_0 e250_250_to_250_500_1" intLanes="" shape=""/>
    <junction id="n_500_500" type="dead_end" x="500.00" y="500.00" incLanes="e250_500_to_500_500_0 e250_500_to_500_500_1 e500_250_to_500_500_0 e500_250_to_500_500_1" intLanes="" shape=""/>

</net>
