<edges>
<edge id="E0" from="N7" to="N8" numLanes="2" speed="13.157354507506174"/>
<edge id="-E0" from="N8" to="N7" numLanes="2" speed="11.382949764145788"/>
<edge id="E1" from="N7" to="N14" numLanes="2" speed="9.220288119231748"/>
<edge id="-E1" from="N14" to="N7" numLanes="2" speed="10.621067426138177"/>
<edge id="E2" from="N7" to="N6" numLanes="2" speed="11.215114636290068"/>
<edge id="-E2" from="N6" to="N7" numLanes="2" speed="12.370378559334863"/>
<edge id="E3" from="N7" to="N1" numLanes="2" speed="11.383123246408655"/>
<edge id="-E3" from="N1" to="N7" numLanes="2" speed="13.072447114247755"/>
<edge id="E4" from="N8" to="N9" numLanes="2" speed="13.250109758443404"/>
<edge id="-E4" from="N9" to="N8" numLanes="2" speed="10.126122071610892"/>
<edge id="E5" from="N8" to="N15" numLanes="2" speed="9.3081973242797"/>
<edge id="-E5" from="N15" to="N8" numLanes="2" speed="12.178009002682101"/>
<edge id="E7" from="N8" to="N2" numLanes="2" speed="11.872639068520392"/>
<edge id="-E7" from="N2" to="N8" numLanes="2" speed="12.211593035093939"/>
<edge id="E8" from="N9" to="N10" numLanes="2" speed="10.525998811140125"/>
<edge id="-E8" from="N10" to="N9" numLanes="2" speed="13.310444165243064"/>
<edge id="E9" from="N9" to="N16" numLanes="2" speed="11.0921834843951"/>
<edge id="-E9" from="N16" to="N9" numLanes="2" speed="12.22988997716528"/>
<edge id="E11" from="N9" to="N3" numLanes="2" speed="9.90282506022438"/>
<edge id="-E11" from="N3" to="N9" numLanes="2" speed="9.347239998625357"/>
<edge id="E12" from="N10" to="N11" numLanes="2" speed="11.677424022875666"/>
<edge id="-E12" from="N11" to="N10" numLanes="2" speed="10.863993894048605"/>
<edge id="E13" from="N10" to="N17" numLanes="2" speed="10.00282880280571"/>
<edge id="-E13" from="N17" to="N10" numLanes="2" speed="12.022683619996283"/>
<edge id="E15" from="N10" to="N4" numLanes="2" speed="12.552372276954554"/>
<edge id="-E15" from="N4" to="N10" numLanes="2" speed="8.924976700519144"/>
<edge id="E16" from="N11" to="N12" numLanes="2" speed="10.16696529480985"/>
<edge id="-E16" from="N12" to="N11" numLanes="2" speed="11.421961541227795"/>
<edge id="E17" from="N11" to="N18" numLanes="2" speed="9.426926685016165"/>
<edge id="-E17" from="N18" to="N11" numLanes="2" speed="12.680929302398862"/>
<edge id="E19" from="N11" to="N5" numLanes="2" speed="9.044618634190355"/>
<edge id="-E19" from="N5" to="N11" numLanes="2" speed="12.53928817349454"/>
<edge id="E20" from="N14" to="N15" numLanes="2" speed="11.761375155824352"/>
<edge id="-E20" from="N15" to="N14" numLanes="2" speed="11.40503847219368"/>
<edge id="E21" from="N14" to="N21" numLanes="2" speed="11.834972965019116"/>
<edge id="-E21" from="N21" to="N14" numLanes="2" speed="10.809227173872006"/>
<edge id="E22" from="N14" to="N13" numLanes="2" speed="13.033416866116783"/>
<edge id="-E22" from="N13" to="N14" numLanes="2" speed="9.259166483939637"/>
<edge id="E24" from="N15" to="N16" numLanes="2" speed="12.80540591448988"/>
<edge id="-E24" from="N16" to="N15" numLanes="2" speed="11.649043706463397"/>
<edge id="E25" from="N15" to="N22" numLanes="2" speed="10.847247540884103"/>
<edge id="-E25" from="N22" to="N15" numLanes="2" speed="9.029780444327358"/>
<edge id="E28" from="N16" to="N17" numLanes="2" speed="12.6321807488786"/>
<edge id="-E28" from="N17" to="N16" numLanes="2" speed="12.984962624396525"/>
<edge id="E29" from="N16" to="N23" numLanes="2" speed="9.203860080968566"/>
<edge id="-E29" from="N23" to="N16" numLanes="2" speed="9.177484017363247"/>
<edge id="E32" from="N17" to="N18" numLanes="2" speed="13.234513481878857"/>
<edge id="-E32" from="N18" to="N17" numLanes="2" speed="10.30219560383821"/>
<edge id="E33" from="N17" to="N24" numLanes="2" speed="10.114469012322576"/>
<edge id="-E33" from="N24" to="N17" numLanes="2" speed="12.279596181860859"/>
<edge id="E36" from="N18" to="N19" numLanes="2" speed="12.825229929252297"/>
<edge id="-E36" from="N19" to="N18" numLanes="2" speed="11.625263501456745"/>
<edge id="E37" from="N18" to="N25" numLanes="2" speed="9.681482170816812"/>
<edge id="-E37" from="N25" to="N18" numLanes="2" speed="11.267737703367201"/>
<edge id="E40" from="N21" to="N22" numLanes="2" speed="13.223674864520227"/>
<edge id="-E40" from="N22" to="N21" numLanes="2" speed="12.36997176637308"/>
<edge id="E41" from="N21" to="N28" numLanes="2" speed="11.086637229568414"/>
<edge id="-E41" from="N28" to="N21" numLanes="2" speed="11.68510855311303"/>
<edge id="E42" from="N21" to="N20" numLanes="2" speed="11.6894379971537"/>
<edge id="-E42" from="N20" to="N21" numLanes="2" speed="11.162951136426136"/>
<edge id="E44" from="N22" to="N23" numLanes="2" speed="11.40602856587002"/>
<edge id="-E44" from="N23" to="N22" numLanes="2" speed="9.110691500322314"/>
<edge id="E45" from="N22" to="N29" numLanes="2" speed="10.34497574180094"/>
<edge id="-E45" from="N29" to="N22" numLanes="2" speed="12.81678901459721"/>
<edge id="E48" from="N23" to="N24" numLanes="2" speed="10.421883627034028"/>
<edge id="-E48" from="N24" to="N23" numLanes="2" speed="9.474622651036686"/>
<edge id="E49" from="N23" to="N30" numLanes="2" speed="9.303371726631516"/>
<edge id="-E49" from="N30" to="N23" numLanes="2" speed="12.084153256940215"/>
<edge id="E52" from="N24" to="N25" numLanes="2" speed="9.056088262521946"/>
<edge id="-E52" from="N25" to="N24" numLanes="2" speed="11.989450450124306"/>
<edge id="E53" from="N24" to="N31" numLanes="2" speed="11.468557969871211"/>
<edge id="-E53" from="N31" to="N24" numLanes="2" speed="11.969660933523102"/>
<edge id="E56" from="N25" to="N26" numLanes="2" speed="13.297357184586534"/>
<edge id="-E56" from="N26" to="N25" numLanes="2" speed="12.752227362647995"/>
<edge id="E57" from="N25" to="N32" numLanes="2" speed="11.828713142318026"/>
<edge id="-E57" from="N32" to="N25" numLanes="2" speed="12.387644046492568"/>
<edge id="E60" from="N28" to="N29" numLanes="2" speed="12.705469096006148"/>
<edge id="-E60" from="N29" to="N28" numLanes="2" speed="9.984099038527612"/>
<edge id="E61" from="N28" to="N35" numLanes="2" speed="11.97031928886886"/>
<edge id="-E61" from="N35" to="N28" numLanes="2" speed="12.375594099902951"/>
<edge id="E62" from="N28" to="N27" numLanes="2" speed="9.984332332990688"/>
<edge id="-E62" from="N27" to="N28" numLanes="2" speed="9.752709924248396"/>
<edge id="E64" from="N29" to="N30" numLanes="2" speed="13.11048436983145"/>
<edge id="-E64" from="N30" to="N29" numLanes="2" speed="11.110580289820499"/>
<edge id="E65" from="N29" to="N36" numLanes="2" speed="10.231292951843631"/>
<edge id="-E65" from="N36" to="N29" numLanes="2" speed="10.81740989720183"/>
<edge id="E68" from="N30" to="N31" numLanes="2" speed="10.434654801315359"/>
<edge id="-E68" from="N31" to="N30" numLanes="2" speed="9.800743036793591"/>
<edge id="E69" from="N30" to="N37" numLanes="2" speed="12.187015055992294"/>
<edge id="-E69" from="N37" to="N30" numLanes="2" speed="11.76582925145841"/>
<edge id="E72" from="N31" to="N32" numLanes="2" speed="9.402540753038865"/>
<edge id="-E72" from="N32" to="N31" numLanes="2" speed="10.025640486997702"/>
<edge id="E73" from="N31" to="N38" numLanes="2" speed="12.67903646380018"/>
<edge id="-E73" from="N38" to="N31" numLanes="2" speed="11.693984971731632"/>
<edge id="E76" from="N32" to="N33" numLanes="2" speed="9.542032381073051"/>
<edge id="-E76" from="N33" to="N32" numLanes="2" speed="11.090657422767832"/>
<edge id="E77" from="N32" to="N39" numLanes="2" speed="12.733409176418434"/>
<edge id="-E77" from="N39" to="N32" numLanes="2" speed="12.475939201179369"/>
<edge id="E80" from="N35" to="N36" numLanes="2" speed="12.79441045502495"/>
<edge id="-E80" from="N36" to="N35" numLanes="2" speed="10.165292706463774"/>
<edge id="E81" from="N35" to="N41" numLanes="2" speed="11.712492558767973"/>
<edge id="-E81" from="N41" to="N35" numLanes="2" speed="12.856962577544012"/>
<edge id="E82" from="N35" to="N34" numLanes="2" speed="12.528380698486519"/>
<edge id="-E82" from="N34" to="N35" numLanes="2" speed="8.931686969990562"/>
<edge id="E84" from="N36" to="N37" numLanes="2" speed="13.152568848888803"/>
<edge id="-E84" from="N37" to="N36" numLanes="2" speed="10.856155170385017"/>
<edge id="E85" from="N36" to="N42" numLanes="2" speed="12.813297976487343"/>
<edge id="-E85" from="N42" to="N36" numLanes="2" speed="13.242632518864594"/>
<edge id="E88" from="N37" to="N38" numLanes="2" speed="10.832337887303169"/>
<edge id="-E88" from="N38" to="N37" numLanes="2" speed="12.165911072073104"/>
<edge id="E89" from="N37" to="N43" numLanes="2" speed="10.45260026574873"/>
<edge id="-E89" from="N43" to="N37" numLanes="2" speed="11.393364925011594"/>
<edge id="E92" from="N38" to="N39" numLanes="2" speed="12.856195258604707"/>
<edge id="-E92" from="N39" to="N38" numLanes="2" speed="11.681845242567316"/>
<edge id="E93" from="N38" to="N44" numLanes="2" speed="13.062932023142327"/>
<edge id="-E93" from="N44" to="N38" numLanes="2" speed="13.099865244798696"/>
<edge id="E96" from="N39" to="N40" numLanes="2" speed="11.417925365455922"/>
<edge id="-E96" from="N40" to="N39" numLanes="2" speed="11.041178374647721"/>
<edge id="E97" from="N39" to="N45" numLanes="2" speed="10.642294220252195"/>
<edge id="-E97" from="N45" to="N39" numLanes="2" speed="10.076281852900125"/>
</edges>